24
Coordinates from ORCA-job P1R2
  C   -3.45250097892626      1.24624534654809      0.97236844892409
  C   -2.08028296869089      1.08740357929826      0.88636377223634
  C   -1.52907776572044      0.18397351841259     -0.02760986093378
  C   -2.38563698708514     -0.55313929014755     -0.85130847649724
  C   -3.75677237342897     -0.38755296320387     -0.76087848221296
  C   -4.29490384157963      0.51092433002121      0.15005704596265
  H   -3.86746772148388      1.94925515971412      1.68561611898410
  H   -1.41928129104097      1.66005749214610      1.52581616042818
  H   -1.96106361086968     -1.25397062081998     -1.55996371345597
  H   -4.41010792147827     -0.96456946933937     -1.40533571819804
  H   -5.36915300031922      0.63782449955713      0.21903760904787
  C   -0.11807364139316      0.01642731609306     -0.11942862298855
  C   1.07557421264049     -0.13527332204537     -0.20168619179224
  C   2.53171362137471     -0.28956774914037     -0.31287685092102
  C   2.94116934872277     -1.72263436471292     -0.00255943102434
  H   2.67313356897780     -1.98638826781599      1.02100438277651
  H   2.44507693987446     -2.40976005548299     -0.68805114089779
  H   4.02158929005498     -1.81981076742497     -0.12702649332043
  C   3.22782351072384      0.69328645355847      0.62697891149056
  H   4.30901743687124      0.58411589407731      0.52237684779113
  H   2.95196365519417      1.72072235556063      0.37902926588525
  H   2.94721780111953      0.50739470719686      1.66540961014347
  O   2.94618151649501     -0.05758284829514     -1.65681889834189
  H   2.57386119996754      0.78261896624470     -1.94051429308591
