20
Coordinates from ORCA-job P2R1
  C   -2.16500722455281     -3.69898914619793     -0.21707141796351
  C   -1.01837964130273     -3.52973102147477     -0.98119622895646
  C   -0.28974203374643     -2.35698514686955     -0.89526648486450
  C   -0.70296083403474     -1.33203193067607     -0.03641892876172
  C   -1.86031684902457     -1.51129276860435      0.73071472733038
  C   -2.58240256327590     -2.68736469222742      0.63731123715293
  H   -2.73328728023884     -4.61925523948719     -0.28735482621271
  H   -0.68951746337633     -4.31742853286257     -1.64918292469810
  H   0.60566655864784     -2.21926778007962     -1.48912299228641
  H   -2.18046409160365     -0.71841050747060      1.39563144968727
  H   -3.47714301201333     -2.81609972686925      1.23538710416846
  C   0.03588995881203     -0.12672636472615      0.05968325489886
  C   0.65798876158699      0.90928879438513      0.15350399350618
  C   1.35144165565279      2.07312071474202      0.26054400431939
  C   1.96303946464175      3.11175178299240      0.36810510398334
  C   2.69637139910986      4.36507510116787      0.44918097729535
  H   2.80717187369414      4.66020224659401      1.49637305692727
  H   3.70959658595780      4.20980325294735      0.05133763953442
  O   2.05089613862084      5.44185353431848     -0.19577926639420
  H   1.82115849644526      5.16248753039821     -1.08637927866636
